power-flow-agent/results/ieee14/2026-09-16/gpt-5.4/react_nogate__stress/traces/06_case14-stress-002-s1.transcript.txt
==============================================================================
TRANSCRIPT  react_nogate  |  openrouter:openai/gpt-5.4  |  case14  |  case14-stress-002-s1  run 0
==============================================================================
date: 2026-09-16   seed: 0   difficulty: stress   tool variant: None

[system]   (hash 7da5e2a37ec4, from methods/react_nogate/method.json prompt_files)
You are a power system power-flow analysis assistant. You help the user complete power system analysis tasks from natural-language requests.

## What you can do
You complete tasks by calling tool functions:
1. Load an IEEE standard test system (14, 30, 57, 118, 300 buses)
2. Run AC power flow
3. Modify the load at a bus and re-solve
4. Disconnect or reconnect a line and re-solve
5. Query the network status
6. Run an N-1 contingency analysis (disconnect branches one at a time and rank the worst cases)
7. Generate remedial-action suggestions (what-if load shedding or voltage adjustment) to reduce violation risk

## Key rules
- Never fabricate any numerical result. Every voltage, power, loss, or loading value must come from a tool return value.
- If a tool reports an error or a non-converged power flow, say so explicitly and do not report numbers for that state.
- If the request is ambiguous, state the interpretation you are using.
- Bus and line identifiers in the request are MATPOWER 1-based ids; pass them to the tools as given, unless the request itself states a different indexing convention for that identifier (e.g. "(0-based)"), in which case convert it to the MATPOWER 1-based id before calling any tool.
- After a network modification, re-solve before reporting any value.
- Always reply in English.

## Reply format
After each analysis, reply in this structure:
1. One-sentence summary
2. Key numbers (total load, total generation, total losses, voltage range) taken from the tool outputs
3. Violations, if any
4. Suggested next step

[user]
Load the IEEE 14-bus system, disconnect the line between bus 10 and bus 11, increase the load at bus 13 to 81 MW and 34.8 Mvar (six times its nominal value), increase the load at bus 3 to 565.2 MW and 114 Mvar (six times its nominal value), increase the active load at bus 4 to 286.8 MW (six times its nominal value), and finally rerun the power flow, then report the bus with the lowest voltage magnitude.

[tools available to the model]   (function-calling schema, --tool-variant v1; enum values and defaults as sent)
  load_case(case_name: string* in {case14, case30, case57, case118, case300})  Load IEEE test case.
  run_powerflow()  Run power flow on current case.
  modify_load(bus_id: integer*, p_mw: number*, q_mvar: number)  Modify bus load and recompute.
  disconnect_line(from_bus: integer*, to_bus: integer*)  Disconnect line/branch between two buses and recompute.
  reconnect_line(from_bus: integer*, to_bus: integer*)  Reconnect line/branch between two buses and recompute.
  get_most_loaded_branch()  Get most loaded branch.
  run_n1_contingency(top_k: integer (default 5), criteria: string in {max_violations, max_overload, min_voltage} (default max_violations), max_candidates: integer (default 0))  Run N-1 contingency analysis.
  recommend_remedial_actions(max_actions: integer (default 5), allow_load_shed: boolean (default True), allow_voltage_control: boolean (default True), include_best_comparison: boolean (default True))  Recommend remedial actions.
  apply_remedial_action(action_index: integer*, confirmed: boolean (default False))  Apply one remedial action by index.
  get_status()  Get current network status.
  generate_plot(plot_type: string* in {voltage_heatmap, flow_diagram, violation_overview, comparison})  Generate one plot.

--- round 1 ---
[assistant]   (851 in / 20 out tokens, 1.3 s)
(no text)
tool_call  load_case(case_name="case14")
[tool load_case]   (gate: not applied)
{"case_name": "case14", "n_buses": 14, "n_generators": 5, "n_lines": 20, "n_loads": 11, "total_load_mw": 275.4195652257564, "total_gen_capacity_mw": 772.4000000000001}

--- round 2 ---
[assistant]   (952 in / 24 out tokens, 1.5 s)
(no text)
tool_call  disconnect_line(from_bus=10, to_bus=11)
[tool disconnect_line]   (gate: pass)
{"case_name": "case14", "converged": true, "bus_voltages": [{"bus_id": 1, "vm_pu": 1.06, "va_deg": 0.0, "is_violation": true, "violation_type": "overvoltage"}, {"bus_id": 2, "vm_pu": 1.0450000000000002, "va_deg": -5.470514289148799, "is_violation": false, "violation_type": null}, {"bus_id": 3, "vm_pu": 1.01, "va_deg": -13.876211149432416, "is_violation": false, "violation_type": null}, {"bus_id": 4, "vm_pu": 1.0158320513561359, "va_deg": -11.092455909957788, "is_violation": false, "violation_type": null}, {"bus_id": 5, "vm_pu": 1.0181462572363857, "va_deg": -9.40153122462727, "is_violation": false, "violation_type": null}, {"bus_id": 6, "vm_pu": 1.07, "va_deg": -14.839865435753284, "is_violation": true, "violation_type": "overvoltage"}, {"bus_id": 7, "vm_pu": 1.05881463593274, "va_deg": -14.370728666012528, "is_violation": true, "violation_type": "overvoltage"}, {"bus_id": 8, "vm_pu": 1.09, "va_deg": -14.370728666012528, "is_violation": true, "violation_type": "overvoltage"}, {"bus_id": 9, "vm_pu": 1.0512876776614213, "va_deg": -16.073946277037205, "is_violation": true, "violation_type": "overvoltage"}, {"bus_id": 10, "vm_pu": 1.043322044011013, "va_deg": -16.395360377940232, "is_violation": false, "violation_type": null}, {"bus_id": 11, "vm_pu": 1.0628482480258483, "va_deg": -15.130600055578869, "is_violation": true, "violation_type": "overvoltage"}, {"bus_id": 12, "vm_pu": 1.0545372570892668, "va_deg": -15.759642683050112, "is_violation": true, "violation_type": "overvoltage"}, {"bus_id": 13, "vm_pu": 1.048322006878148, "va_deg": -15.900288276282774, "is_violation": false, "violation_type": null}, {"bus_id": 14, "vm_pu": 1.0308945647522145, "va_deg": -17.061851970937653, "is_violation": false, "violation_type": null}], "line_flows": [{"line_id": 0, "from_bus": 1, "to_bus": 2, "p_from_mw": 171.65032299985265, "q_from_mvar": -23.788835964766108, "loading_percent": 1.6513333099094367, "is_violation": false}, {"line_id": 1, "from_bus": 1, "to_bus": 5, "p_from_mw": 80.69946343306873, "q_from_mvar": 4.077565209736258, "loading_percent": 0.7701679725164376, "is_violation": false}, {"line_id": 2, "from_bus": 2, "to_bus": 3, "p_from_mw": 79.21620351739334, "q_from_mvar": 3.007847778834594, "loading_percent": 0.7662586351755428, "is_violation": false}, {"line_id": 3, "from_bus": 2, "to_bus": 4, "p_from_mw": 59.201237055822276, "q_from_mvar": -1.184515417225355, "loading_percent": 0.5723559608819073, "is_violation": false}, {"line_id": 4, "from_bus": 2, "to_bus": 5, "p_from_mw": 43.08428922649989, "q_from_mvar": 1.5780329471597556, "loading_percent": 0.4183872244184909, "is_violation": false}, {"line_id": 5, "from_bus": 3, "to_bus": 4, "p_from_mw": -26.186696654904008, "q_from_mvar": 6.870995125068415, "loading_percent": 0.2740678554871417, "is_violation": false}, {"line_id": 6, "from_bus": 4, "to_bus": 5, "p_from_mw": -67.15575261496987, "q_from_mvar": 16.777067211741727, "loading_percent": 0.6882916900250232, "is_violation": false}, {"line_id": 7, "from_bus": 6, "to_bus": 11, "p_from_mw": 3.861484386548212, "q_from_mvar": 2.0107480121104513, "loading_percent": 0.04109920343862342, "is_violation": false}, {"line_id": 8, "from_bus": 6, "to_bus": 12, "p_from_mw": 8.29949909775682, "q_from_mvar": 2.5368859168703457, "loading_percent": 0.08192734951433582, "is_violation": false}, {"line_id": 9, "from_bus": 6, "to_bus": 13, "p_from_mw": 19.91645366088838, "q_from_mvar": 7.839739080706042, "loading_percent": 0.20205695264384274, "is_violation": false}, {"line_id": 10, "from_bus": 9, "to_bus": 10, "p_from_mw": 9.652102872487301, "q_from_mvar": 6.297155851772546, "loading_percent": 0.11073132392102243, "is_violation": false}, {"line_id": 11, "from_bus": 9, "to_bus": 14, "p_from_mw": 8.735833341233077, "q_from_mvar": 3.8819458080163143, "loading_percent": 0.09184996523700874, "is_violation": false}, {"line_id": 12, "from_bus": 10, "to_bus": 11, "p_from_mw": 0.0, "q_from_mvar": 0.0, "loading_percent": 0.0, "is_violation": false}, {"line_id": 13, "from_bus": 12, "to_bus": 13, "p_from_mw": 2.2433040620129923, "q_from_mvar": 0.8012989092477711, "loading_percent": 0.02281741344602106, "is_violation": false}, {"line_id": 14, "from_bus": 13, "to_bus": 14, "p_from_mw": 7.1740750673586176, "q_from_mvar": 1.7898403119103272, "loading_percent": 0.07124397465191401, "is_violation": false}, {"line_id": 100000, "from_bus": 4, "to_bus": 7, "p_from_mw": 30.074117143180136, "q_from_mvar": -9.138585664016716, "loading_percent": 0.31254600546301464, "is_violation": false}, {"line_id": 100001, "from_bus": 4, "to_bus": 9, "p_from_mw": 17.206546607616087, "q_from_mvar": 0.19103863615687805, "loading_percent": 0.1711052657220927, "is_violation": false}, {"line_id": 100002, "from_bus": 5, "to_bus": 6, "p_from_mw": 43.957601165768104, "q_from_mvar": 11.811158902519832, "loading_percent": 0.45157079229035624, "is_violation": false}, {"line_id": 100003, "from_bus": 7, "to_bus": 8, "p_from_mw": -1.5128998900337457e-15, "q_from_mvar": -18.745114902813487, "loading_percent": 0.17882695285102004, "is_violation": false}, {"line_id": 100004, "from_bus": 7, "to_bus": 9, "p_from_mw": 30.074117142675227, "q_from_mvar": 7.691516909706288, "loading_percent": 0.296139241059143, "is_violation": false}], "total_generation_mw": 290.99117169598094, "total_load_mw": 275.4195652257564, "total_loss_mw": 15.571606478499412, "voltage_violations": [{"bus_id": 1, "vm_pu": 1.06, "va_deg": 0.0, "is_violation": true, "violation_type": "overvoltage"}, {"bus_id": 6, "vm_pu": 1.07, "va_deg": -14.839865435753284, "is_violation": true, "violation_type": "overvoltage"}, {"bus_id": 7, "vm_pu": 1.05881463593274, "va_deg": -14.370728666012528, "is_violation": true, "violation_type": "overvoltage"}, {"bus_id": 8, "vm_pu": 1.09, "va_deg": -14.370728666012528, "is_violation": true, "violation_type": "overvoltage"}, {"bus_id": 9, "vm_pu": 1.0512876776614213, "va_deg": -16.073946277037205, "is_violation": true, "violation_type": "overvoltage"}, {"bus_id": 11, "vm_pu": 1.0628482480258483, "va_deg": -15.130600055578869, "is_violation": true, "violation_type": "overvoltage"}, {"bus_id": 12, "vm_pu": 1.0545372570892668, "va_deg": -15.759642683050112, "is_violation": true, "violation_type": "overvoltage"}], "thermal_violations": [], "summary_text": "", "solver_backend": "pandapower", "llm_prompt": null, "llm_response": null}

--- round 3 ---
[assistant]   (3569 in / 33 out tokens, 1.3 s)
(no text)
tool_call  modify_load(bus_id=13, p_mw=81, q_mvar=34.8)
[tool modify_load]   (gate: pass)
{"case_name": "case14", "converged": true, "bus_voltages": [{"bus_id": 1, "vm_pu": 1.06, "va_deg": 0.0, "is_violation": true, "violation_type": "overvoltage"}, {"bus_id": 2, "vm_pu": 1.0449999999999997, "va_deg": -7.1537214518454375, "is_violation": false, "violation_type": null}, {"bus_id": 3, "vm_pu": 1.0099999999999993, "va_deg": -16.61355314150844, "is_violation": false, "violation_type": null}, {"bus_id": 4, "vm_pu": 1.0027487124764694, "va_deg": -14.498328770170616, "is_violation": false, "violation_type": null}, {"bus_id": 5, "vm_pu": 1.0022609545620522, "va_deg": -12.896323011112452, "is_violation": false, "violation_type": null}, {"bus_id": 6, "vm_pu": 1.0699999999999996, "va_deg": -25.026741353560386, "is_violation": true, "violation_type": "overvoltage"}, {"bus_id": 7, "vm_pu": 1.0491080504578774, "va_deg": -19.191662962879104, "is_violation": false, "violation_type": null}, {"bus_id": 8, "vm_pu": 1.0900000000000003, "va_deg": -19.191662962879104, "is_violation": true, "violation_type": "overvoltage"}, {"bus_id": 9, "vm_pu": 1.0388381077191446, "va_deg": -21.62649155570927, "is_violation": false, "violation_type": null}, {"bus_id": 10, "vm_pu": 1.0307751068310949, "va_deg": -21.955716855092028, "is_violation": false, "violation_type": null}, {"bus_id": 11, "vm_pu": 1.062848248025848, "va_deg": -25.31747597338597, "is_violation": true, "violation_type": "overvoltage"}, {"bus_id": 12, "vm_pu": 1.0275392691061538, "va_deg": -27.134842700738535, "is_violation": false, "violation_type": null}, {"bus_id": 13, "vm_pu": 0.9873505023645814, "va_deg": -27.915230910711976, "is_violation": false, "violation_type": null}, {"bus_id": 14, "vm_pu": 0.9956246178677655, "va_deg": -25.43479403146188, "is_violation": false, "violation_type": null}], "line_flows": [{"line_id": 0, "from_bus": 1, "to_bus": 2, "p_from_mw": 222.80426653175107, "q_from_mvar": -34.49697683570502, "loading_percent": 2.148456723840877, "is_violation": false}, {"line_id": 1, "from_bus": 1, "to_bus": 5, "p_from_mw": 109.44534943091608, "q_from_mvar": 10.17912397068161, "loading_percent": 1.0478241914532318, "is_violation": false}, {"line_id": 2, "from_bus": 2, "to_bus": 3, "p_from_mw": 88.73124096836355, "q_from_mvar": 2.272394957467487, "loading_percent": 0.8579607951384299, "is_violation": false}, {"line_id": 3, "from_bus": 2, "to_bus": 4, "p_from_mw": 77.42391326349498, "q_from_mvar": 2.544150540578552, "loading_percent": 0.7487864519983208, "is_violation": false}, {"line_id": 4, "from_bus": 2, "to_bus": 5, "p_from_mw": 62.92351315876367, "q_from_mvar": 6.210409697890038, "loading_percent": 0.613975599677055, "is_violation": false}, {"line_id": 5, "from_bus": 3, "to_bus": 4, "p_from_mw": -17.35610759253286, "q_from_mvar": 10.83296411171554, "loading_percent": 0.21159335848570435, "is_violation": false}, {"line_id": 6, "from_bus": 4, "to_bus": 5, "p_from_mw": -60.025638299981054, "q_from_mvar": 21.124067642365528, "loading_percent": 0.6410071238944043, "is_violation": false}, {"line_id": 7, "from_bus": 6, "to_bus": 11, "p_from_mw": 3.8614843865482014, "q_from_mvar": 2.0107480121104566, "loading_percent": 0.041099203438623375, "is_violation": false}, {"line_id": 8, "from_bus": 6, "to_bus": 12, "p_from_mw": 19.891312951000423, "q_from_mvar": 8.494072079940763, "loading_percent": 0.20418199616455968, "is_violation": false}, {"line_id": 9, "from_bus": 6, "to_bus": 13, "p_from_mw": 60.31097168673342, "q_from_mvar": 38.290851748338454, "loading_percent": 0.6744029388428361, "is_violation": false}, {"line_id": 10, "from_bus": 9, "to_bus": 10, "p_from_mw": 9.653039170300785, "q_from_mvar": 6.299643031310175, "loading_percent": 0.11207918239968721, "is_violation": false}, {"line_id": 11, "from_bus": 9, "to_bus": 14, "p_from_mw": 27.526258153396853, "q_from_mvar": 4.50738309370666, "loading_percent": 0.27121263022711767, "is_violation": false}, {"line_id": 12, "from_bus": 10, "to_bus": 11, "p_from_mw": 0.0, "q_from_mvar": 0.0, "loading_percent": 0.0, "is_violation": false}, {"line_id": 13, "from_bus": 12, "to_bus": 13, "p_from_mw": 13.413756245090058, "q_from_mvar": 5.881513883317174, "loading_percent": 0.1439797272680951, "is_violation": false}, {"line_id": 14, "from_bus": 13, "to_bus": 14, "p_from_mw": -10.672887280593871, "q_from_mvar": 3.1592316111901915, "loading_percent": 0.11387117489022965, "is_violation": false}, {"line_id": 100000, "from_bus": 4, "to_bus": 7, "p_from_mw": 42.087290304599335, "q_from_mvar": -9.945574343282, "loading_percent": 0.43563527731508506, "is_violation": false}, {"line_id": 100001, "from_bus": 4, "to_bus": 9, "p_from_mw": 23.98473455751558, "q_from_mvar": 0.7478491869742923, "loading_percent": 0.2417233575918133, "is_violation": false}, {"line_id": 100002, "from_bus": 5, "to_bus": 6, "p_from_mw": 95.94393304620053, "q_from_mvar": 12.49332358323039, "loading_percent": 0.9751076693086028, "is_violation": false}, {"line_id": 100003, "from_bus": 7, "to_bus": 8, "p_from_mw": 3.1401856169084343e-14, "q_from_mvar": -24.354285247549516, "loading_percent": 0.23448764994321833, "is_violation": false}, {"line_id": 100004, "from_bus": 7, "to_bus": 9, "p_from_mw": 42.08729030459932, "q_from_mvar": 10.68830991228746, "loading_percent": 0.4180873855306008, "is_violation": false}], "total_generation_mw": 370.89100122572677, "total_load_mw": 341.70985181587065, "total_loss_mw": 29.18114940985637, "voltage_violations": [{"bus_id": 1, "vm_pu": 1.06, "va_deg": 0.0, "is_violation": true, "violation_type": "overvoltage"}, {"bus_id": 6, "vm_pu": 1.0699999999999996, "va_deg": -25.026741353560386, "is_violation": true, "violation_type": "overvoltage"}, {"bus_id": 8, "vm_pu": 1.0900000000000003, "va_deg": -19.191662962879104, "is_violation": true, "violation_type": "overvoltage"}, {"bus_id": 11, "vm_pu": 1.062848248025848, "va_deg": -25.31747597338597, "is_violation": true, "violation_type": "overvoltage"}], "thermal_violations": [], "summary_text": "", "solver_backend": "pandapower", "llm_prompt": null, "llm_response": null}

--- round 4 ---
[assistant]   (6051 in / 33 out tokens, 1.5 s)
(no text)
tool_call  modify_load(bus_id=3, p_mw=565.2, q_mvar=114)
[tool modify_load]   (gate: pass)
{"case_name": "case14", "converged": true, "bus_voltages": [{"bus_id": 1, "vm_pu": 1.06, "va_deg": 0.0, "is_violation": true, "violation_type": "overvoltage"}, {"bus_id": 2, "vm_pu": 1.045, "va_deg": -26.880092176257026, "is_violation": false, "violation_type": null}, {"bus_id": 3, "vm_pu": 1.0100000000000002, "va_deg": -77.64613241172977, "is_violation": false, "violation_type": null}, {"bus_id": 4, "vm_pu": 0.927329602671216, "va_deg": -44.19736511549469, "is_violation": true, "violation_type": "undervoltage"}, {"bus_id": 5, "vm_pu": 0.9283691277530874, "va_deg": -37.083879738462365, "is_violation": true, "violation_type": "undervoltage"}, {"bus_id": 6, "vm_pu": 1.07, "va_deg": -51.50441241267985, "is_violation": true, "violation_type": "overvoltage"}, {"bus_id": 7, "vm_pu": 1.0095998652396476, "va_deg": -48.76995225013872, "is_violation": false, "violation_type": null}, {"bus_id": 8, "vm_pu": 1.09, "va_deg": -48.769952250138715, "is_violation": true, "violation_type": "overvoltage"}, {"bus_id": 9, "vm_pu": 0.9940768185860799, "va_deg": -51.06255439158681, "is_violation": false, "violation_type": null}, {"bus_id": 10, "vm_pu": 0.9856429506162429, "va_deg": -51.42235831404393, "is_violation": false, "violation_type": null}, {"bus_id": 11, "vm_pu": 1.062848248025848, "va_deg": -51.79514703250541, "is_violation": true, "violation_type": "overvoltage"}, {"bus_id": 12, "vm_pu": 1.0245223944763275, "va_deg": -53.86035260092621, "is_violation": false, "violation_type": null}, {"bus_id": 13, "vm_pu": 0.9798414477897569, "va_deg": -54.84238221052042, "is_violation": false, "violation_type": null}, {"bus_id": 14, "vm_pu": 0.9672580562218495, "va_deg": -53.9017202298135, "is_violation": false, "violation_type": null}], "line_flows": [{"line_id": 0, "from_bus": 1, "to_bus": 2, "p_from_mw": 832.1829878557319, "q_from_mvar": -46.39246457585139, "loading_percent": 7.9423968575479345, "is_violation": false}, {"line_id": 1, "from_bus": 1, "to_bus": 5, "p_from_mw": 286.02708121522966, "q_from_mvar": 79.7382551362584, "loading_percent": 2.829557825539589, "is_violation": false}, {"line_id": 2, "from_bus": 2, "to_bus": 3, "p_from_mw": 439.1042943524506, "q_from_mvar": 107.79177359723641, "loading_percent": 4.370414008419063, "is_violation": false}, {"line_id": 3, "from_bus": 2, "to_bus": 4, "p_from_mw": 175.7063466394541, "q_from_mvar": 34.88867942569943, "loading_percent": 1.7336706359089757, "is_violation": false}, {"line_id": 4, "from_bus": 2, "to_bus": 5, "p_from_mw": 112.60700027471037, "q_from_mvar": 40.147544672312044, "loading_percent": 1.1648339946910597, "is_violation": false}, {"line_id": 5, "from_bus": 3, "to_bus": 4, "p_from_mw": -214.2872648597654, "q_from_mvar": 222.82377056582692, "loading_percent": 3.0977787458459316, "is_violation": false}, {"line_id": 6, "from_bus": 4, "to_bus": 5, "p_from_mw": -226.17543107164605, "q_from_mvar": 85.15073116079785, "loading_percent": 2.6324450350384483, "is_violation": false}, {"line_id": 7, "from_bus": 6, "to_bus": 11, "p_from_mw": 3.861484386548221, "q_from_mvar": 2.010748012110637, "loading_percent": 0.04109920343862431, "is_violation": false}, {"line_id": 8, "from_bus": 6, "to_bus": 12, "p_from_mw": 21.878904221488046, "q_from_mvar": 8.872322197600665, "loading_percent": 0.2228775283404216, "is_violation": false}, {"line_id": 9, "from_bus": 6, "to_bus": 13, "p_from_mw": 67.70103111338051, "q_from_mvar": 41.041017478075474, "loading_percent": 0.7473747310624288, "is_violation": false}, {"line_id": 10, "from_bus": 9, "to_bus": 10, "p_from_mw": 9.656707862691444, "q_from_mvar": 6.309388537980652, "loading_percent": 0.11721123874794723, "is_violation": false}, {"line_id": 11, "from_bus": 9, "to_bus": 14, "p_from_mw": 18.390896793829633, "q_from_mvar": 1.6508271712992098, "loading_percent": 0.18762487123150318, "is_violation": false}, {"line_id": 12, "from_bus": 10, "to_bus": 11, "p_from_mw": 0.0, "q_from_mvar": 0.0, "loading_percent": 0.0, "is_violation": false}, {"line_id": 13, "from_bus": 12, "to_bus": 13, "p_from_mw": 15.305167719466988, "q_from_mvar": 6.059587012604825, "loading_percent": 0.1622935849835833, "is_violation": false}, {"line_id": 14, "from_bus": 13, "to_bus": 14, "p_from_mw": -2.1855120936827297, "q_from_mvar": 4.652936823450203, "loading_percent": 0.05299404248918397, "is_violation": false}, {"line_id": 100000, "from_bus": 4, "to_bus": 7, "p_from_mw": 36.494484288468705, "q_from_mvar": -26.38747380985318, "loading_percent": 0.4905466409058588, "is_violation": false}, {"line_id": 100001, "from_bus": 4, "to_bus": 9, "p_from_mw": 20.445847898981658, "q_from_mvar": -5.15388195242329, "loading_percent": 0.2296746505304252, "is_violation": false}, {"line_id": 100002, "from_bus": 5, "to_bus": 6, "p_from_mw": 105.32158372260201, "q_from_mvar": -15.882784013336884, "loading_percent": 1.1588959072684006, "is_violation": false}, {"line_id": 100003, "from_bus": 7, "to_bus": 8, "p_from_mw": -5.4016915908745637e-14, "q_from_mvar": -46.08116106687559, "loading_percent": 0.46104034819011835, "is_violation": false}, {"line_id": 100004, "from_bus": 7, "to_bus": 9, "p_from_mw": 36.49448429228694, "q_from_mvar": 14.976270109498627, "loading_percent": 0.3946747144437836, "is_violation": false}], "total_generation_mw": 1156.8514543340211, "total_load_mw": 804.219727331888, "total_loss_mw": 352.63172735856296, "voltage_violations": [{"bus_id": 1, "vm_pu": 1.06, "va_deg": 0.0, "is_violation": true, "violation_type": "overvoltage"}, {"bus_id": 4, "vm_pu": 0.927329602671216, "va_deg": -44.19736511549469, "is_violation": true, "violation_type": "undervoltage"}, {"bus_id": 5, "vm_pu": 0.9283691277530874, "va_deg": -37.083879738462365, "is_violation": true, "violation_type": "undervoltage"}, {"bus_id": 6, "vm_pu": 1.07, "va_deg": -51.50441241267985, "is_violation": true, "violation_type": "overvoltage"}, {"bus_id": 8, "vm_pu": 1.09, "va_deg": -48.769952250138715, "is_violation": true, "violation_type": "overvoltage"}, {"bus_id": 11, "vm_pu": 1.062848248025848, "va_deg": -51.79514703250541, "is_violation": true, "violation_type": "overvoltage"}], "thermal_violations": [], "summary_text": "", "solver_backend": "pandapower", "llm_prompt": null, "llm_response": null}

--- round 5 ---
[assistant]   (8614 in / 36 out tokens, 1.5 s)
(no text)
tool_call  modify_load(bus_id=4, p_mw=286.8, q_mvar=-3.9)
[tool modify_load]   (gate: FAIL, not enforced)
{"case_name": "case14", "converged": false, "bus_voltages": [], "line_flows": [], "total_generation_mw": 0.0, "total_load_mw": 0.0, "total_loss_mw": 0.0, "voltage_violations": [], "thermal_violations": [], "summary_text": "Power flow failed: LoadflowNotConverged: Power Flow nr did not converge after 10 iterations!", "solver_backend": "pandapower", "llm_prompt": null, "llm_response": null}

--- round 6 ---
[assistant]   (8787 in / 15 out tokens, 1.4 s)
(no text)
tool_call  run_powerflow()
[tool run_powerflow]   (gate: FAIL, not enforced)
{"case_name": "case14", "converged": false, "bus_voltages": [], "line_flows": [], "total_generation_mw": 0.0, "total_load_mw": 0.0, "total_loss_mw": 0.0, "voltage_violations": [], "thermal_violations": [], "summary_text": "Power flow failed: LoadflowNotConverged: Power Flow nr did not converge after 10 iterations!", "solver_backend": "pandapower", "llm_prompt": null, "llm_response": null}

--- round 7 ---
[assistant]   (8940 in / 206 out tokens, 4.0 s)
1. Summary: I loaded the IEEE 14-bus case, disconnected line 10–11, applied the requested load changes, and the final AC power flow did not converge, so the lowest-voltage bus cannot be reported for the final state.

2. Key numbers: No valid final-state numbers are available because the rerun failed to converge. The solver reported: “Power flow failed: LoadflowNotConverged: Power Flow nr did not converge after 10 iterations!”

3. Violations: Since the final power flow is non-converged, no final bus voltages or violations can be reported. Just before the last load change, the modified case was already stressed, with undervoltage at buses 4 and 5 in that intermediate solved state.

4. Suggested next step: Reduce the stressed load levels slightly, or apply the changes one at a time with checks in between, so we can reach a converged operating point and then identify the bus with the lowest voltage magnitude.

[final answer]
1. Summary: I loaded the IEEE 14-bus case, disconnected line 10–11, applied the requested load changes, and the final AC power flow did not converge, so the lowest-voltage bus cannot be reported for the final state.

2. Key numbers: No valid final-state numbers are available because the rerun failed to converge. The solver reported: “Power flow failed: LoadflowNotConverged: Power Flow nr did not converge after 10 iterations!”

3. Violations: Since the final power flow is non-converged, no final bus voltages or violations can be reported. Just before the last load change, the modified case was already stressed, with undervoltage at buses 4 and 5 in that intermediate solved state.

4. Suggested next step: Reduce the stressed load levels slightly, or apply the changes one at a time with checks in between, so we can reach a converged operating point and then identify the bus with the lowest voltage magnitude.
